/*--------------------------------*- C++ -*----------------------------------*\
| =========                 |                                                 |
| \\      /  F ield         | OpenFOAM: The Open Source CFD Toolbox           |
|  \\    /   O peration     | Version:  5.0                                   |
|   \\  /    A nd           | Web:      www.OpenFOAM.org                      |
|    \\/     M anipulation  |                                                 |
\*---------------------------------------------------------------------------*/
FoamFile
{
    version     2.0;
    format      ascii;
    class       volScalarField;
    object      epsilon;
}
// * * * * * * * * * * * * * * * * * * * * * * * * * * * * * * * * * * * * * //

dimensions      [0 2 -3 0 0 0 0];

internalField   uniform 0.000765;

boundaryField
{
    inlet
    {
        type            turbulentMixingLengthDissipationRateInlet;
        mixingLength    0.5;       // 0.5 - half channel height
        value           uniform 1;
    }

    outlet
    {
        type            inletOutlet;
        inletValue      uniform 1;
    }

    top
    {
        type           symmetryPlane;
    }

    sides 
    {
        type            empty;
    }
    bottom
    {
        type            epsilonWallFunction;
        value           uniform 0.000765;
    }
}

// ************************************************************************* //
